Version 4
SHEET 1 932 680
WIRE 512 -32 512 -64
WIRE 512 0 512 -32
WIRE 688 80 512 80
WIRE 720 80 688 80
WIRE 864 80 784 80
WIRE 512 128 512 80
WIRE 352 160 352 128
WIRE 688 176 688 80
WIRE 352 192 352 160
WIRE 352 272 256 272
WIRE 496 272 496 224
WIRE 496 272 352 272
WIRE 528 272 528 224
WIRE 576 272 528 272
WIRE 688 272 688 240
WIRE 688 272 640 272
WIRE 816 272 688 272
WIRE 688 304 688 272
WIRE 816 304 816 272
WIRE 256 352 256 336
WIRE 352 352 256 352
WIRE 352 384 352 352
WIRE 528 384 528 352
WIRE 688 384 688 368
WIRE 816 384 816 368
WIRE 80 480 80 448
WIRE 80 544 80 480
FLAG 352 384 0
FLAG 80 624 0
FLAG 80 480 Vcc
FLAG 352 160 Vcc
FLAG 528 384 0
FLAG 688 384 0
FLAG 512 -32 Vcc
FLAG 864 160 0
FLAG 816 384 0
SYMBOL AutoGenerated/X2SC2753 512 176 M90
SYMATTR InstName U1
SYMBOL voltage 80 528 R0
SYMATTR InstName Vcc
SYMATTR Value 12
SYMBOL Res 336 176 R0
SYMATTR InstName R1
SYMATTR Value 800
SYMBOL Res 336 256 R0
SYMATTR InstName R2
SYMATTR Value 200
SYMBOL Cap 240 272 R0
SYMATTR InstName C1
SYMATTR Value 1µ
SYMBOL Res 512 256 R0
SYMATTR InstName R3
SYMATTR Value 43
SYMBOL Cap 672 176 R0
SYMATTR InstName C3
SYMATTR Value 200p
SYMBOL Cap 672 304 R0
SYMATTR InstName Coffset
SYMATTR Value 55p
SYMBOL Ind 496 -16 R0
SYMATTR InstName L1
SYMATTR Value 40n
SYMBOL Res 848 64 R0
SYMATTR InstName R4
SYMATTR Value 50
SYMBOL Cap 640 256 R90
WINDOW 0 0 32 VBottom 2
WINDOW 3 32 32 VTop 2
SYMATTR InstName C5
SYMATTR Value 1µ
SYMBOL Cap 784 64 R90
WINDOW 0 0 32 VBottom 2
WINDOW 3 32 32 VTop 2
SYMATTR InstName C2
SYMATTR Value 1µ
SYMBOL Cap 800 304 R0
SYMATTR InstName Cvaractor
SYMATTR Value 3p
TEXT 272 504 Left 2 !.tran 1n 5u 0 0.5n
