Version 4
SHEET 1 1380 752
WIRE 528 80 528 16
WIRE 176 192 176 176
WIRE 528 192 528 160
WIRE 528 192 448 192
WIRE 624 192 528 192
WIRE 688 192 624 192
WIRE 784 192 752 192
WIRE 832 192 784 192
WIRE 176 208 176 192
WIRE 1248 224 1248 208
WIRE 624 240 624 192
WIRE 832 240 832 192
WIRE 448 256 448 192
WIRE 1248 272 1248 224
WIRE 400 320 384 320
WIRE 448 320 448 256
WIRE 448 320 432 320
WIRE 176 336 176 288
WIRE 176 336 64 336
WIRE 240 336 176 336
WIRE 288 336 272 336
WIRE 832 336 832 320
WIRE -96 352 -96 336
WIRE 432 352 384 352
WIRE 448 352 432 352
WIRE 512 352 448 352
WIRE 624 352 624 304
WIRE 624 352 576 352
WIRE 736 352 624 352
WIRE -96 368 -96 352
WIRE 1088 384 1072 384
WIRE 1184 384 1168 384
WIRE 1248 384 1248 352
WIRE 1248 384 1184 384
WIRE 64 400 64 336
WIRE 176 400 176 336
WIRE 448 400 448 352
WIRE 624 400 624 352
WIRE 736 400 736 352
WIRE 1184 416 1184 384
WIRE 1248 416 1248 384
WIRE -96 512 -96 448
WIRE 64 512 64 464
WIRE 176 512 176 480
WIRE 448 512 448 480
WIRE 624 512 624 464
WIRE 736 512 736 464
WIRE 1184 512 1184 480
WIRE 1248 512 1248 496
FLAG 176 512 0
FLAG -96 512 0
FLAG -96 352 Vdd
FLAG 272 336 Vc
FLAG 400 320 Vb
FLAG 176 336 Vb
FLAG 448 256 Vc
FLAG 448 512 0
FLAG 176 192 Vdd
FLAG 432 352 Ve
FLAG 64 512 0
FLAG 624 512 0
FLAG 1248 512 0
FLAG 1248 224 Vdd
FLAG 1248 384 Vctrl
FLAG 528 16 Vdd
FLAG 832 336 0
FLAG 1184 512 0
FLAG 784 192 Vout
FLAG 624 352 V_ctrl
FLAG 1072 384 V_ctrl
FLAG 736 512 0
SYMBOL AutoGenerated/X2SC2753 336 336 R0
SYMATTR InstName U1
SYMBOL Res 160 384 R0
SYMATTR InstName R2
SYMATTR Value 1.5k
SYMBOL Res 160 192 R0
SYMATTR InstName R3
SYMATTR Value 4.32k
SYMBOL Voltage -96 352 R0
SYMATTR InstName V2
SYMATTR Value 12V
SYMBOL Res 432 384 R0
SYMATTR InstName R_E
SYMATTR Value 93
SYMBOL Cap 608 400 R0
SYMATTR InstName C2
SYMATTR Value 77p
SYMBOL Cap 576 336 R90
WINDOW 0 0 32 VBottom 2
WINDOW 3 32 32 VTop 2
SYMATTR InstName C3
SYMATTR Value 1µ
SYMBOL Cap 608 240 R0
SYMATTR InstName C1
SYMATTR Value 150p
SYMBOL Res 1232 400 R0
SYMATTR InstName R5
SYMATTR Value 5k
SYMBOL Res 1232 256 R0
SYMATTR InstName R6
SYMATTR Value 5k
SYMBOL Cap 48 400 R0
SYMATTR InstName C4
SYMATTR Value 1µ
SYMBOL ind 512 64 R0
SYMATTR InstName L1
SYMATTR Value 51n
SYMATTR SpiceLine Rser=5
SYMBOL Res 816 224 R0
SYMATTR InstName R7
SYMATTR Value 50
SYMBOL Cap 752 176 R90
WINDOW 0 0 32 VBottom 2
WINDOW 3 32 32 VTop 2
SYMATTR InstName C5
SYMATTR Value 1µ
SYMBOL Res 1184 368 R90
WINDOW 0 0 56 VBottom 2
WINDOW 3 32 56 VTop 2
SYMATTR InstName R1
SYMATTR Value 1k
SYMBOL Cap 1168 416 R0
SYMATTR InstName C6
SYMATTR Value 1µ
SYMBOL Cap 720 400 R0
SYMATTR InstName C7
SYMATTR Value C_offset
TEXT 488 640 Left 2 ;.op
TEXT 488 680 Left 2 ;.ac dec 100 1k 1G
TEXT 488 720 Left 2 ;.net I(RL) V1
TEXT 488 600 Left 2 !.tran 20u
TEXT 592 376 Left 2 ;Varactor
RECTANGLE Normal 696 492 576 364 2
